reduced_networks/ieee37/62pct/dss/Loads.dss
! Phase-wise constant-PQ injections aggregated by assignment; positive DSS power is consumption.
new Load.agg_4 phases=1 bus1=799.1 conn=wye kv=2.771281292110204 kw=7.5e-12 kvar=-2.5e-12 model=1
new Load.agg_5 phases=1 bus1=799.2 conn=wye kv=2.771281292110204 kw=-9e-10 kvar=5.699999999999999e-10 model=1
new Load.agg_6 phases=1 bus1=799.3 conn=wye kv=2.771281292110204 kw=-1.5e-11 kvar=2.75e-11 model=1
new Load.agg_7 phases=1 bus1=709.1 conn=wye kv=2.771281292110204 kw=6.75e-11 kvar=9.999999999999999e-11 model=1
new Load.agg_8 phases=1 bus1=709.2 conn=wye kv=2.771281292110204 kw=54.2769431856975 kvar=-3.0393522554525 model=1
new Load.agg_9 phases=1 bus1=709.3 conn=wye kv=2.771281292110204 kw=31.4072475769975 kvar=43.3613243789275 model=1
new Load.agg_10 phases=1 bus1=775.1 conn=wye kv=0.2771281292110204 kw=-0 kvar=-7.5e-12 model=1
new Load.agg_11 phases=1 bus1=775.2 conn=wye kv=0.2771281292110204 kw=-2.5e-12 kvar=-2.5e-12 model=1
new Load.agg_12 phases=1 bus1=775.3 conn=wye kv=0.2771281292110204 kw=-2.5e-12 kvar=-2.5e-12 model=1
new Load.agg_13 phases=1 bus1=701.1 conn=wye kv=2.771281292110204 kw=207.8388338682425 kvar=183.8968211965975 model=1
new Load.agg_14 phases=1 bus1=701.2 conn=wye kv=2.771281292110204 kw=141.544299247995 kvar=73.36021581587001 model=1
new Load.agg_15 phases=1 bus1=701.3 conn=wye kv=2.771281292110204 kw=280.6175205219325 kvar=57.7433013193375 model=1
new Load.agg_16 phases=1 bus1=702.1 conn=wye kv=2.771281292110204 kw=64.2448156939075 kvar=89.91331234239001 model=1
new Load.agg_17 phases=1 bus1=702.2 conn=wye kv=2.771281292110204 kw=57.9804810686875 kvar=0.965751295765 model=1
new Load.agg_18 phases=1 bus1=702.3 conn=wye kv=2.771281292110204 kw=142.342288038375 kvar=33.8513070172 model=1
new Load.agg_19 phases=1 bus1=703.1 conn=wye kv=2.771281292110204 kw=107.033285309745 kvar=39.33522698785249 model=1
new Load.agg_20 phases=1 bus1=703.2 conn=wye kv=2.771281292110204 kw=73.35302888305 kvar=67.5581633590525 model=1
new Load.agg_21 phases=1 bus1=703.3 conn=wye kv=2.771281292110204 kw=70.61070609342751 kvar=18.115463323725 model=1
new Load.agg_22 phases=1 bus1=730.1 conn=wye kv=2.771281292110204 kw=27.0276823664275 kvar=41.400447051445 model=1
new Load.agg_23 phases=1 bus1=730.2 conn=wye kv=2.771281292110204 kw=-1.5e-10 kvar=1.6e-10 model=1
new Load.agg_24 phases=1 bus1=730.3 conn=wye kv=2.771281292110204 kw=50.9504608866775 kvar=-4.704850226460001 model=1
new Load.agg_25 phases=1 bus1=704.1 conn=wye kv=2.771281292110204 kw=61.214563851545 kvar=-6.2041753391925 model=1
new Load.agg_26 phases=1 bus1=704.2 conn=wye kv=2.771281292110204 kw=50.7230795825575 kvar=51.6893263604075 model=1
new Load.agg_27 phases=1 bus1=704.3 conn=wye kv=2.771281292110204 kw=7.676380427867499 kvar=10.8640260219225 model=1
new Load.agg_28 phases=1 bus1=720.1 conn=wye kv=2.771281292110204 kw=29.7607510678875 kvar=45.1761739339425 model=1
new Load.agg_29 phases=1 bus1=720.2 conn=wye kv=2.771281292110204 kw=27.0381849929525 kvar=-0.9856237057999999 model=1
new Load.agg_30 phases=1 bus1=720.3 conn=wye kv=2.771281292110204 kw=70.20119539629501 kvar=16.8095176099225 model=1
new Load.agg_31 phases=1 bus1=707.1 conn=wye kv=2.771281292110204 kw=7.181158813180001 kvar=10.60602675414 model=1
new Load.agg_32 phases=1 bus1=707.2 conn=wye kv=2.771281292110204 kw=117.130870662035 kvar=-4.52066612827 model=1
new Load.agg_33 phases=1 bus1=707.3 conn=wye kv=2.771281292110204 kw=77.69145021115251 kvar=94.018497064095 model=1
new Load.agg_34 phases=1 bus1=708.1 conn=wye kv=2.771281292110204 kw=64.7212961952475 kvar=16.896252105605 model=1
new Load.agg_35 phases=1 bus1=708.2 conn=wye kv=2.771281292110204 kw=31.599437639485 kvar=43.39515756579501 model=1
new Load.agg_36 phases=1 bus1=708.3 conn=wye kv=2.771281292110204 kw=27.8563132424925 kvar=-1.904261745785 model=1
new Load.agg_37 phases=1 bus1=734.1 conn=wye kv=2.771281292110204 kw=43.09790389275 kvar=67.684225640785 model=1
new Load.agg_38 phases=1 bus1=734.2 conn=wye kv=2.771281292110204 kw=26.8296093346625 kvar=-0.8007833161875001 model=1
new Load.agg_39 phases=1 bus1=734.3 conn=wye kv=2.771281292110204 kw=98.24701836753249 kvar=14.7215052690575 model=1
new Load.agg_40 phases=1 bus1=737.1 conn=wye kv=2.771281292110204 kw=205.0671803792675 kvar=51.5397351437075 model=1
new Load.agg_41 phases=1 bus1=737.2 conn=wye kv=2.771281292110204 kw=97.95422316767001 kvar=142.1309565682625 model=1
new Load.agg_42 phases=1 bus1=737.3 conn=wye kv=2.771281292110204 kw=82.78917233240752 kvar=-6.918007211714999 model=1
new Load.agg_43 phases=1 bus1=799r.1 conn=wye kv=2.771281292110204 kw=2.25e-11 kvar=-2.75e-11 model=1
new Load.agg_44 phases=1 bus1=799r.2 conn=wye kv=2.771281292110204 kw=-4.5725e-09 kvar=-9.249999999999999e-10 model=1
new Load.agg_45 phases=1 bus1=799r.3 conn=wye kv=2.771281292110204 kw=-4.25e-11 kvar=-3.75e-11 model=1
